<?xml version="1.0" encoding="UTF-8"?>

<!-- generated on 2022-01-28 09:57:22 by Eclipse SUMO sumo Version 1.9.2
-->

<configuration xmlns:xsi="http://www.w3.org/2001/XMLSchema-instance" xsi:noNamespaceSchemaLocation="http://sumo.dlr.de/xsd/sumoConfiguration.xsd">

    <input>
        <net-file value="haneda.net.xml"/>

    </input>

    

</configuration>
